This file was updated.
Have a nice day!


New line...

